ver_1.2
     RDKit          3D

 26 28  0  0  0  0  0  0  0  0999 V2000
   -0.3436   -0.0062   -2.4645 C   0  0  0  0  0  0  0  0  0  0  0  0
   -0.4565   -1.2933   -1.9784 O   0  0  0  0  0  0  0  0  0  0  0  0
    0.1640   -1.3960   -0.7140 C   0  0  0  0  0  0  0  0  0  0  0  0
    0.0224   -2.7972   -0.2216 C   0  0  0  0  0  0  0  0  0  0  0  0
   -1.0899   -3.0241    0.7739 C   0  0  0  0  0  0  0  0  0  0  0  0
   -2.2877   -2.2147    0.3563 C   0  0  0  0  0  0  0  0  0  0  0  0
   -3.5933   -2.4462    0.1912 N   0  0  0  0  0  0  0  0  0  0  0  0
   -4.1907   -1.2772   -0.2076 C   0  0  0  0  0  0  0  0  0  0  0  0
   -3.2295   -0.2761   -0.2969 C   0  0  0  0  0  0  0  0  0  0  0  0
   -3.4804    1.1403   -0.6791 C   0  0  0  0  0  0  0  0  0  0  0  0
   -3.5089    2.0397    0.4619 N   0  0  0  0  0  0  0  0  0  0  0  0
   -4.5902    1.6222    1.3670 C   0  0  0  0  0  0  0  0  0  0  0  0
   -3.7288    3.3739   -0.0257 C   0  0  0  0  0  0  0  0  0  0  0  0
   -2.0412   -0.8609    0.0543 C   0  0  0  0  0  0  0  0  0  0  0  0
   -0.6155   -0.4505    0.1857 C   0  0  0  0  0  0  0  0  0  0  0  0
   -0.0970   -0.7617    1.6010 C   0  0  0  0  0  0  0  0  0  0  0  0
    1.4143   -0.7443    1.4978 C   0  0  0  0  0  0  0  0  0  0  0  0
    1.8027    0.7042    1.1870 C   0  0  0  0  0  0  0  0  0  0  0  0
    3.2933    0.8147    1.0736 C   0  0  0  0  0  0  0  0  0  0  0  0
    3.8906    0.0129    0.0441 N   0  0  0  0  0  0  0  0  0  0  0  0
    5.3236    0.0681    0.0521 C   0  0  0  0  0  0  0  0  0  0  0  0
    5.7937    1.4315   -0.3576 C   0  0  0  0  0  0  0  0  0  0  0  0
    5.3814    1.7588   -1.7685 C   0  0  0  0  0  0  0  0  0  0  0  0
    5.3423    2.4431    0.4786 O   0  0  0  0  0  0  0  0  0  0  0  0
    1.1696    1.1592   -0.1068 C   0  0  0  0  0  0  0  0  0  0  0  0
   -0.3448    0.9797   -0.0971 C   0  0  0  0  0  0  0  0  0  0  0  0
  1  2  1  0
  2  3  1  0
  3  4  1  0
  4  5  1  0
  5  6  1  0
  6  7  1  0
  7  8  1  0
  8  9  2  0
  9 10  1  0
 10 11  1  0
 11 12  1  0
 11 13  1  0
  9 14  1  0
 14 15  1  0
 15 16  1  0
 16 17  1  0
 17 18  1  0
 18 19  1  0
 19 20  1  0
 20 21  1  0
 21 22  1  0
 22 23  1  0
 22 24  1  0
 18 25  1  0
 25 26  1  0
 15  3  1  0
 14  6  2  0
 26 15  1  0
M  END
>  <ref_url>  (1) 
https://github.com/mwinokan/BulkDock

>  <submitter_name>  (1) 
Max Winokan

>  <submitter_email>  (1) 
max.winokan@diamond.ac.uk

>  <submitter_institution>  (1) 
DLS

>  <generation_date>  (1) 
2025-01-30

>  <method>  (1) 
fstein_iter1_pure

>  <SLURM_JOB_ID>  (1) 
SLURM_JOB_ID

>  <SLURM_JOB_NAME>  (1) 
SLURM_JOB_NAME

>  <csv_name>  (1) 
csv_name

>  <scratch_subdir>  (1) 
scratch_subdir

>  <fragmenstein_runtime>  (1) 
fragmenstein_runtime

>  <fragmenstein_outcome>  (1) 
fragmenstein_outcome

>  <fragmenstein_mode>  (1) 
fragmenstein_mode

>  <fragmenstein_error>  (1) 
fragmenstein_error

>  <exports>  (1) 
exports

>  <HIPPO Pose ID>  (1) 
HIPPO Pose ID

>  <HIPPO Compound ID>  (1) 
HIPPO Compound ID

>  <smiles>  (1) 
smiles

>  <ref_pdb>  (1) 
protein reference

>  <ref_mols>  (1) 
fragment inspirations

>  <original ID>  (1) 
original ID

>  <compound inchikey>  (1) 
compound inchikey

$$$$
10
     RDKit          3D

 26 28  0  0  0  0  0  0  0  0999 V2000
  -27.2171   -3.5117   -6.9203 C   0  0  0  0  0  0  0  0  0  0  0  0
  -27.1371   -3.6349   -8.3252 O   0  0  0  0  0  0  0  0  0  0  0  0
  -28.0388   -2.7951   -9.0560 C   0  0  1  0  0  0  0  0  0  0  0  0
  -27.2302   -2.2491  -10.2325 C   0  0  0  0  0  0  0  0  0  0  0  0
  -28.0830   -1.4086  -11.1642 C   0  0  0  0  0  0  0  0  0  0  0  0
  -29.1808   -2.2649  -11.6509 C   0  0  0  0  0  0  0  0  0  0  0  0
  -29.7180   -2.1722  -12.8957 N   0  0  0  0  0  0  0  0  0  0  0  0
  -30.6780   -3.1299  -13.0336 C   0  0  0  0  0  0  0  0  0  0  0  0
  -30.7452   -3.8882  -11.8706 C   0  0  0  0  0  0  0  0  0  0  0  0
  -31.7135   -5.0410  -11.7098 C   0  0  0  0  0  0  0  0  0  0  0  0
  -31.1532   -6.3353  -12.1109 N   0  0  0  0  0  0  0  0  0  0  0  0
  -32.0120   -7.4275  -11.6453 C   0  0  0  0  0  0  0  0  0  0  0  0
  -30.9952   -6.4538  -13.5556 C   0  0  0  0  0  0  0  0  0  0  0  0
  -29.7923   -3.2840  -10.9451 C   0  0  0  0  0  0  0  0  0  0  0  0
  -29.4047   -3.5416   -9.4600 C   0  0  1  0  0  0  0  0  0  0  0  0
  -29.3492   -5.0668   -9.1637 C   0  0  0  0  0  0  0  0  0  0  0  0
  -30.1170   -5.4732   -7.9057 C   0  0  0  0  0  0  0  0  0  0  0  0
  -31.5734   -4.9885   -7.9266 C   0  0  1  0  0  0  0  0  0  0  0  0
  -32.2694   -5.1523   -6.5703 C   0  0  0  0  0  0  0  0  0  0  0  0
  -31.7826   -4.2299   -5.5429 N   0  0  0  0  0  0  0  0  0  0  0  0
  -32.4915   -4.4248   -4.2744 C   0  0  0  0  0  0  0  0  0  0  0  0
  -33.8161   -3.6520   -4.1435 C   0  0  1  0  0  0  0  0  0  0  0  0
  -34.6038   -4.1434   -2.9370 C   0  0  0  0  0  0  0  0  0  0  0  0
  -33.5654   -2.2502   -3.9572 O   0  0  0  0  0  0  0  0  0  0  0  0
  -31.7360   -3.5619   -8.4445 C   0  0  0  0  0  0  0  0  0  0  0  0
  -30.4399   -2.8177   -8.5495 C   0  0  0  0  0  0  0  0  0  0  0  0
  1  2  1  0
  3  2  1  6
  3  4  1  0
  4  5  1  0
  5  6  1  0
  6  7  1  0
  7  8  1  0
  8  9  2  0
  9 10  1  0
 10 11  1  0
 11 12  1  0
 11 13  1  0
  9 14  1  0
 14 15  1  0
 15 16  1  1
 16 17  1  0
 17 18  1  0
 18 19  1  1
 19 20  1  0
 20 21  1  0
 21 22  1  0
 22 23  1  1
 22 24  1  0
 18 25  1  0
 25 26  1  0
 15  3  1  0
 14  6  2  0
 26 15  1  0
M  END
>  <csv_name>  (1) 
2AZ_iter1_frags_fstein_split1000_batch000.csv

>  <name>  (1) 
UZXJSAJYYRBKAN-DCTVWTRXSA-N

>  <exports>  (1) 
['/opt/xchem-fragalysis-2/maxwin/BulkDock/OUTPUTS/2AZ_iter1_frags_fstein_split1000_batch000_276740.sdf']

>  <alias>  (1) 
None

>  <original SMILES>  (1) 
CO[C@H]1CCc2[nH]cc(CN(C)C)c2[C@]12CC[C@H](CNC[C@@H](C)O)CC2

>  <scratch_subdir>  (1) 
/opt/xchem-fragalysis-2/maxwin/BulkDock/SCRATCH/276740/C8-P6

>  <ref_mols>  (1) 
A0229a,A0759a

>  <fragmenstein_mode>  (1) 
expansion

>  <inchikey>  (1) 
UZXJSAJYYRBKAN-DCTVWTRXSA-N

>  <fragmenstein_outcome>  (1) 
acceptable

>  <ref_pdb>  (1) 
A0759a

>  <HIPPO Pose ID>  (1) 
10

>  <SLURM_JOB_ID>  (1) 
276740

>  <tags>  (1) 
['Fragmenstein placed']

>  <fragmenstein_error>  (1) 
None

>  <HIPPO Compound ID>  (1) 
8

>  <distance_score>  (1) 
0.983298

>  <fragmenstein_runtime>  (1) 
5.487178

>  <SLURM_JOB_NAME>  (1) 
BulkDock.place:A71EV2AZ:2AZ_iter1_frags_fstein_split1000_batch000

>  <energy_score>  (1) 
-54.231458

>  <original ID>  (1) 
UZXJSAJYYRBKAN-DCTVWTRXSA-N

$$$$
13
     RDKit          3D

 19 20  0  0  0  0  0  0  0  0999 V2000
  -27.6421   -4.5216   -6.7685 C   0  0  0  0  0  0  0  0  0  0  0  0
  -28.0118   -3.8207   -8.0237 C   0  0  0  0  0  0  0  0  0  0  0  0
  -27.4332   -2.7315   -8.4902 N   0  0  0  0  0  0  0  0  0  0  0  0
  -28.0846   -2.4368   -9.6630 C   0  0  0  0  0  0  0  0  0  0  0  0
  -27.8898   -1.3723  -10.5500 C   0  0  0  0  0  0  0  0  0  0  0  0
  -28.7141   -1.2738  -11.6733 C   0  0  0  0  0  0  0  0  0  0  0  0
  -29.7014   -2.2236  -11.9235 C   0  0  0  0  0  0  0  0  0  0  0  0
  -29.9004   -3.3032  -11.0609 C   0  0  0  0  0  0  0  0  0  0  0  0
  -29.0781   -3.3715   -9.9309 C   0  0  0  0  0  0  0  0  0  0  0  0
  -29.0420   -4.2177   -8.8487 N   0  0  0  0  0  0  0  0  0  0  0  0
  -30.0780   -5.1889   -8.5229 C   0  0  0  0  0  0  0  0  0  0  0  0
  -31.3112   -4.4489   -7.9972 C   0  0  0  0  0  0  0  0  0  0  0  0
  -32.0204   -5.1864   -6.8755 C   0  0  0  0  0  0  0  0  0  0  0  0
  -31.7517   -6.2700   -6.5375 O   0  0  0  0  0  0  0  0  0  0  0  0
  -33.0768   -4.1924   -6.3207 N   0  0  0  0  0  0  0  0  0  0  0  0
  -34.0802   -4.3663   -5.2994 C   0  0  0  0  0  0  0  0  0  0  0  0
  -33.5129   -4.1215   -3.8923 C   0  0  2  0  0  0  0  0  0  0  0  0
  -34.5158   -4.5350   -2.8254 C   0  0  0  0  0  0  0  0  0  0  0  0
  -33.1988   -2.7363   -3.7050 O   0  0  0  0  0  0  0  0  0  0  0  0
  1  2  1  0
  2  3  2  0
  3  4  1  0
  4  5  2  0
  5  6  1  0
  6  7  2  0
  7  8  1  0
  8  9  2  0
  9 10  1  0
 10 11  1  0
 11 12  1  0
 12 13  1  0
 13 14  2  0
 13 15  1  0
 15 16  1  0
 16 17  1  0
 17 18  1  1
 17 19  1  0
 10  2  1  0
  9  4  1  0
M  END
>  <csv_name>  (2) 
2AZ_iter1_frags_fstein_split1000_batch000.csv

>  <name>  (2) 
NCUZRMAXKXZOMY-JTQLQIEISA-N

>  <exports>  (2) 
['/opt/xchem-fragalysis-2/maxwin/BulkDock/OUTPUTS/2AZ_iter1_frags_fstein_split1000_batch000_276740.sdf']

>  <alias>  (2) 
None

>  <original SMILES>  (2) 
Cc1nc2ccccc2n1CCC(=O)NC[C@H](C)O

>  <scratch_subdir>  (2) 
/opt/xchem-fragalysis-2/maxwin/BulkDock/SCRATCH/276740/C10-P5

>  <ref_mols>  (2) 
A0503a,A0759a

>  <fragmenstein_mode>  (2) 
expansion

>  <inchikey>  (2) 
NCUZRMAXKXZOMY-JTQLQIEISA-N

>  <fragmenstein_outcome>  (2) 
acceptable

>  <ref_pdb>  (2) 
A0503a

>  <HIPPO Pose ID>  (2) 
13

>  <SLURM_JOB_ID>  (2) 
276740

>  <tags>  (2) 
['Fragmenstein placed']

>  <fragmenstein_error>  (2) 
None

>  <HIPPO Compound ID>  (2) 
10

>  <distance_score>  (2) 
0.979491

>  <fragmenstein_runtime>  (2) 
1.763974

>  <SLURM_JOB_NAME>  (2) 
BulkDock.place:A71EV2AZ:2AZ_iter1_frags_fstein_split1000_batch000

>  <energy_score>  (2) 
-11.805747

>  <original ID>  (2) 
NCUZRMAXKXZOMY-JTQLQIEISA-N

$$$$
