ver_1.2
     RDKit          3D

 26 28  0  0  0  0  0  0  0  0999 V2000
   -0.3436   -0.0062   -2.4645 C   0  0  0  0  0  0  0  0  0  0  0  0
   -0.4565   -1.2933   -1.9784 O   0  0  0  0  0  0  0  0  0  0  0  0
    0.1640   -1.3960   -0.7140 C   0  0  0  0  0  0  0  0  0  0  0  0
    0.0224   -2.7972   -0.2216 C   0  0  0  0  0  0  0  0  0  0  0  0
   -1.0899   -3.0241    0.7739 C   0  0  0  0  0  0  0  0  0  0  0  0
   -2.2877   -2.2147    0.3563 C   0  0  0  0  0  0  0  0  0  0  0  0
   -3.5933   -2.4462    0.1912 N   0  0  0  0  0  0  0  0  0  0  0  0
   -4.1907   -1.2772   -0.2076 C   0  0  0  0  0  0  0  0  0  0  0  0
   -3.2295   -0.2761   -0.2969 C   0  0  0  0  0  0  0  0  0  0  0  0
   -3.4804    1.1403   -0.6791 C   0  0  0  0  0  0  0  0  0  0  0  0
   -3.5089    2.0397    0.4619 N   0  0  0  0  0  0  0  0  0  0  0  0
   -4.5902    1.6222    1.3670 C   0  0  0  0  0  0  0  0  0  0  0  0
   -3.7288    3.3739   -0.0257 C   0  0  0  0  0  0  0  0  0  0  0  0
   -2.0412   -0.8609    0.0543 C   0  0  0  0  0  0  0  0  0  0  0  0
   -0.6155   -0.4505    0.1857 C   0  0  0  0  0  0  0  0  0  0  0  0
   -0.0970   -0.7617    1.6010 C   0  0  0  0  0  0  0  0  0  0  0  0
    1.4143   -0.7443    1.4978 C   0  0  0  0  0  0  0  0  0  0  0  0
    1.8027    0.7042    1.1870 C   0  0  0  0  0  0  0  0  0  0  0  0
    3.2933    0.8147    1.0736 C   0  0  0  0  0  0  0  0  0  0  0  0
    3.8906    0.0129    0.0441 N   0  0  0  0  0  0  0  0  0  0  0  0
    5.3236    0.0681    0.0521 C   0  0  0  0  0  0  0  0  0  0  0  0
    5.7937    1.4315   -0.3576 C   0  0  0  0  0  0  0  0  0  0  0  0
    5.3814    1.7588   -1.7685 C   0  0  0  0  0  0  0  0  0  0  0  0
    5.3423    2.4431    0.4786 O   0  0  0  0  0  0  0  0  0  0  0  0
    1.1696    1.1592   -0.1068 C   0  0  0  0  0  0  0  0  0  0  0  0
   -0.3448    0.9797   -0.0971 C   0  0  0  0  0  0  0  0  0  0  0  0
  1  2  1  0
  2  3  1  0
  3  4  1  0
  4  5  1  0
  5  6  1  0
  6  7  1  0
  7  8  1  0
  8  9  2  0
  9 10  1  0
 10 11  1  0
 11 12  1  0
 11 13  1  0
  9 14  1  0
 14 15  1  0
 15 16  1  0
 16 17  1  0
 17 18  1  0
 18 19  1  0
 19 20  1  0
 20 21  1  0
 21 22  1  0
 22 23  1  0
 22 24  1  0
 18 25  1  0
 25 26  1  0
 15  3  1  0
 14  6  2  0
 26 15  1  0
M  END
>  <ref_url>  (1) 
https://github.com/mwinokan/BulkDock

>  <submitter_name>  (1) 
Max Winokan

>  <submitter_email>  (1) 
max.winokan@diamond.ac.uk

>  <submitter_institution>  (1) 
DLS

>  <generation_date>  (1) 
2025-03-04

>  <method>  (1) 
iter1_fstein

>  <SLURM_JOB_ID>  (1) 
SLURM_JOB_ID

>  <SLURM_JOB_NAME>  (1) 
SLURM_JOB_NAME

>  <csv_name>  (1) 
csv_name

>  <scratch_subdir>  (1) 
scratch_subdir

>  <fragmenstein_runtime>  (1) 
fragmenstein_runtime

>  <fragmenstein_outcome>  (1) 
fragmenstein_outcome

>  <fragmenstein_mode>  (1) 
fragmenstein_mode

>  <fragmenstein_error>  (1) 
fragmenstein_error

>  <exports>  (1) 
exports

>  <score_inspiration>  (1) 
score_inspiration

>  <HIPPO Pose ID>  (1) 
HIPPO Pose ID

>  <HIPPO Compound ID>  (1) 
HIPPO Compound ID

>  <smiles>  (1) 
smiles

>  <ref_pdb>  (1) 
protein reference

>  <ref_mols>  (1) 
fragment inspirations

>  <original ID>  (1) 
original ID

>  <compound inchikey>  (1) 
compound inchikey

$$$$
10
     RDKit          3D

 26 28  0  0  0  0  0  0  0  0999 V2000
   18.5123   -0.0304   22.4679 C   0  0  0  0  0  0  0  0  0  0  0  0
   17.7230    0.3863   23.5631 O   0  0  0  0  0  0  0  0  0  0  0  0
   17.8679    1.7668   23.9174 C   0  0  1  0  0  0  0  0  0  0  0  0
   16.4540    2.2730   24.1999 C   0  0  0  0  0  0  0  0  0  0  0  0
   16.4544    3.7081   24.6930 C   0  0  0  0  0  0  0  0  0  0  0  0
   17.2713    3.7544   25.9208 C   0  0  0  0  0  0  0  0  0  0  0  0
   17.0146    4.5780   26.9704 N   0  0  0  0  0  0  0  0  0  0  0  0
   17.9333    4.3434   27.9499 C   0  0  0  0  0  0  0  0  0  0  0  0
   18.7843    3.3196   27.5499 C   0  0  0  0  0  0  0  0  0  0  0  0
   19.9163    2.8177   28.4210 C   0  0  0  0  0  0  0  0  0  0  0  0
   19.5357    1.7010   29.2934 N   0  0  0  0  0  0  0  0  0  0  0  0
   18.6594    2.1178   30.3820 C   0  0  0  0  0  0  0  0  0  0  0  0
   20.7310    1.0789   29.8695 C   0  0  0  0  0  0  0  0  0  0  0  0
   18.3750    2.9693   26.1939 C   0  0  0  0  0  0  0  0  0  0  0  0
   18.9217    1.9987   25.1092 C   0  0  1  0  0  0  0  0  0  0  0  0
   19.3835    0.6605   25.7520 C   0  0  0  0  0  0  0  0  0  0  0  0
   20.7749    0.2159   25.3020 C   0  0  0  0  0  0  0  0  0  0  0  0
   21.8349    1.3028   25.5271 C   0  0  1  0  0  0  0  0  0  0  0  0
   23.1701    0.9758   24.8478 C   0  0  0  0  0  0  0  0  0  0  0  0
   23.1243    1.0581   23.3874 N   0  0  0  0  0  0  0  0  0  0  0  0
   24.4229    0.7222   22.7943 C   0  0  0  0  0  0  0  0  0  0  0  0
   25.4126    1.8959   22.6846 C   0  0  1  0  0  0  0  0  0  0  0  0
   26.8123    1.3869   22.3686 C   0  0  0  0  0  0  0  0  0  0  0  0
   25.0281    2.7832   21.6241 O   0  0  0  0  0  0  0  0  0  0  0  0
   21.3640    2.7037   25.1451 C   0  0  0  0  0  0  0  0  0  0  0  0
   20.0858    2.7118   24.3628 C   0  0  0  0  0  0  0  0  0  0  0  0
  1  2  1  0
  3  2  1  1
  3  4  1  0
  4  5  1  0
  5  6  1  0
  6  7  1  0
  7  8  1  0
  8  9  2  0
  9 10  1  0
 10 11  1  0
 11 12  1  0
 11 13  1  0
  9 14  1  0
 14 15  1  0
 15 16  1  1
 16 17  1  0
 17 18  1  0
 18 19  1  6
 19 20  1  0
 20 21  1  0
 21 22  1  0
 22 23  1  6
 22 24  1  0
 18 25  1  0
 25 26  1  0
 15  3  1  0
 14  6  2  0
 26 15  1  0
M  END
>  <fragmenstein_error>  (1) 
None

>  <name>  (1) 
UZXJSAJYYRBKAN-DCTVWTRXSA-N

>  <energy_score>  (1) 
-54.10739

>  <tags>  (1) 
Fragmenstein placed

>  <ref_pdb>  (1) 
A0759a

>  <fragmenstein_outcome>  (1) 
acceptable

>  <fragmenstein_runtime>  (1) 
5.735473

>  <original ID>  (1) 
UZXJSAJYYRBKAN-DCTVWTRXSA-N

>  <HIPPO Compound ID>  (1) 
8

>  <alias>  (1) 
None

>  <scratch_subdir>  (1) 
/opt/xchem-fragalysis-2/maxwin/BulkDock/SCRATCH/303809/C8-P6

>  <ref_mols>  (1) 
A0229a,A0759a

>  <fragmenstein_mode>  (1) 
expansion

>  <original SMILES>  (1) 
CO[C@H]1CCc2[nH]cc(CN(C)C)c2[C@]12CC[C@H](CNC[C@@H](C)O)CC2

>  <SLURM_JOB_ID>  (1) 
303809

>  <score_inspiration>  (1) 
0.751172

>  <csv_name>  (1) 
A71EV2AZ_iter1_frags_fstein_split1000_batch000.csv

>  <distance_score>  (1) 
0.856173

>  <HIPPO Pose ID>  (1) 
10

>  <inchikey>  (1) 
UZXJSAJYYRBKAN-DCTVWTRXSA-N

$$$$
15
     RDKit          3D

 19 20  0  0  0  0  0  0  0  0999 V2000
   19.1149   -0.7204   23.0015 C   0  0  0  0  0  0  0  0  0  0  0  0
   18.7230    0.5464   23.6703 C   0  0  0  0  0  0  0  0  0  0  0  0
   17.8457    1.4065   23.1919 N   0  0  0  0  0  0  0  0  0  0  0  0
   17.6974    2.3656   24.1561 C   0  0  0  0  0  0  0  0  0  0  0  0
   16.8699    3.4941   24.1647 C   0  0  0  0  0  0  0  0  0  0  0  0
   16.8738    4.3226   25.2882 C   0  0  0  0  0  0  0  0  0  0  0  0
   17.6747    4.0293   26.3899 C   0  0  0  0  0  0  0  0  0  0  0  0
   18.5046    2.9035   26.4031 C   0  0  0  0  0  0  0  0  0  0  0  0
   18.5077    2.0993   25.2555 C   0  0  0  0  0  0  0  0  0  0  0  0
   19.2061    0.9677   24.8918 N   0  0  0  0  0  0  0  0  0  0  0  0
   20.2250    0.3173   25.6971 C   0  0  0  0  0  0  0  0  0  0  0  0
   21.5217    1.1202   25.8416 C   0  0  0  0  0  0  0  0  0  0  0  0
   22.3886    1.1416   24.5807 C   0  0  0  0  0  0  0  0  0  0  0  0
   22.1204    0.5765   23.5963 O   0  0  0  0  0  0  0  0  0  0  0  0
   23.6321    1.9975   24.9416 N   0  0  0  0  0  0  0  0  0  0  0  0
   24.7614    2.4128   24.1253 C   0  0  0  0  0  0  0  0  0  0  0  0
   25.1751    1.3969   23.0456 C   0  0  2  0  0  0  0  0  0  0  0  0
   26.5636    1.7036   22.5042 C   0  0  0  0  0  0  0  0  0  0  0  0
   24.2665    1.4402   21.9450 O   0  0  0  0  0  0  0  0  0  0  0  0
  1  2  1  0
  2  3  2  0
  3  4  1  0
  4  5  2  0
  5  6  1  0
  6  7  2  0
  7  8  1  0
  8  9  2  0
  9 10  1  0
 10 11  1  0
 11 12  1  0
 12 13  1  0
 13 14  2  0
 13 15  1  0
 15 16  1  0
 16 17  1  0
 17 18  1  6
 17 19  1  0
 10  2  1  0
  9  4  1  0
M  END
>  <fragmenstein_error>  (2) 
None

>  <name>  (2) 
NCUZRMAXKXZOMY-JTQLQIEISA-N

>  <energy_score>  (2) 
-16.16043

>  <tags>  (2) 
Fragmenstein placed

>  <ref_pdb>  (2) 
A0503a

>  <fragmenstein_outcome>  (2) 
acceptable

>  <fragmenstein_runtime>  (2) 
2.716097

>  <original ID>  (2) 
NCUZRMAXKXZOMY-JTQLQIEISA-N

>  <HIPPO Compound ID>  (2) 
10

>  <alias>  (2) 
None

>  <scratch_subdir>  (2) 
/opt/xchem-fragalysis-2/maxwin/BulkDock/SCRATCH/303809/C10-P5

>  <ref_mols>  (2) 
A0503a,A0759a

>  <fragmenstein_mode>  (2) 
expansion

>  <original SMILES>  (2) 
Cc1nc2ccccc2n1CCC(=O)NC[C@H](C)O

>  <SLURM_JOB_ID>  (2) 
303809

>  <score_inspiration>  (2) 
0.745264

>  <csv_name>  (2) 
A71EV2AZ_iter1_frags_fstein_split1000_batch000.csv

>  <distance_score>  (2) 
0.918442

>  <HIPPO Pose ID>  (2) 
15

>  <inchikey>  (2) 
NCUZRMAXKXZOMY-JTQLQIEISA-N

$$$$
16
     RDKit          3D

 19 20  0  0  0  0  0  0  0  0999 V2000
   18.8737   -0.9359   23.0950 C   0  0  0  0  0  0  0  0  0  0  0  0
   18.5458    0.3554   23.7488 C   0  0  0  0  0  0  0  0  0  0  0  0
   17.6300    1.1940   23.3109 N   0  0  0  0  0  0  0  0  0  0  0  0
   17.5713    2.1962   24.2419 C   0  0  0  0  0  0  0  0  0  0  0  0
   16.7111    3.2959   24.3016 C   0  0  0  0  0  0  0  0  0  0  0  0
   16.8177    4.1675   25.3856 C   0  0  0  0  0  0  0  0  0  0  0  0
   17.7751    3.9729   26.3773 C   0  0  0  0  0  0  0  0  0  0  0  0
   18.6497    2.8859   26.3278 C   0  0  0  0  0  0  0  0  0  0  0  0
   18.5102    2.0028   25.2499 C   0  0  0  0  0  0  0  0  0  0  0  0
   19.1395    0.8306   24.9026 N   0  0  0  0  0  0  0  0  0  0  0  0
   20.1524    0.1517   25.6918 C   0  0  0  0  0  0  0  0  0  0  0  0
   21.4939    0.0060   24.9756 C   0  0  0  0  0  0  0  0  0  0  0  0
   22.3614    1.2575   25.0422 C   0  0  0  0  0  0  0  0  0  0  0  0
   22.1498    2.1594   25.7485 O   0  0  0  0  0  0  0  0  0  0  0  0
   23.5540    0.9880   24.0852 N   0  0  0  0  0  0  0  0  0  0  0  0
   24.7763    1.7324   23.8759 C   0  0  0  0  0  0  0  0  0  0  0  0
   25.3551    1.5299   22.4644 C   0  0  2  0  0  0  0  0  0  0  0  0
   26.8769    1.5205   22.4999 C   0  0  0  0  0  0  0  0  0  0  0  0
   24.9517    2.5684   21.5618 O   0  0  0  0  0  0  0  0  0  0  0  0
  1  2  1  0
  2  3  2  0
  3  4  1  0
  4  5  2  0
  5  6  1  0
  6  7  2  0
  7  8  1  0
  8  9  2  0
  9 10  1  0
 10 11  1  0
 11 12  1  0
 12 13  1  0
 13 14  2  0
 13 15  1  0
 15 16  1  0
 16 17  1  0
 17 18  1  1
 17 19  1  0
 10  2  1  0
  9  4  1  0
M  END
>  <fragmenstein_error>  (3) 
None

>  <name>  (3) 
NCUZRMAXKXZOMY-JTQLQIEISA-N

>  <energy_score>  (3) 
-8.008252

>  <tags>  (3) 
Fragmenstein placed

>  <ref_pdb>  (3) 
A0759a

>  <fragmenstein_outcome>  (3) 
acceptable

>  <fragmenstein_runtime>  (3) 
2.135702

>  <original ID>  (3) 
NCUZRMAXKXZOMY-JTQLQIEISA-N

>  <HIPPO Compound ID>  (3) 
10

>  <alias>  (3) 
None

>  <scratch_subdir>  (3) 
/opt/xchem-fragalysis-2/maxwin/BulkDock/SCRATCH/303809/C10-P6

>  <ref_mols>  (3) 
A0503a,A0759a

>  <fragmenstein_mode>  (3) 
expansion

>  <original SMILES>  (3) 
Cc1nc2ccccc2n1CCC(=O)NC[C@H](C)O

>  <SLURM_JOB_ID>  (3) 
303809

>  <score_inspiration>  (3) 
0.810683

>  <csv_name>  (3) 
A71EV2AZ_iter1_frags_fstein_split1000_batch000.csv

>  <distance_score>  (3) 
0.667871

>  <HIPPO Pose ID>  (3) 
16

>  <inchikey>  (3) 
NCUZRMAXKXZOMY-JTQLQIEISA-N

$$$$
